<?xml version="1.0" encoding="UTF-8"?>
<routes>
            <vType id="slow" length="5" maxSpeed="8.33" accel="2.6" decel="4.5" speedDev="0.5" sigma="0.2" vClass="passenger"/>
            <vType id="medium" length="5" maxSpeed="13.9" accel="2.6" decel="4.5" speedDev="0.5" sigma="0.2" vClass="passenger"/>
            <vType id="fast" length="5" maxSpeed="22.2" accel="2.6" decel="4.5" speedDev="0.5" sigma="0.2" vClass="passenger"/>
            <route id="W_E" edges="WW2TL W2TL TL2E TL2EE"/>
            <route id="E_W" edges="EE2TL E2TL TL2W TL2WW"/>
            <route id="N_S" edges="NN2TL N2TL TL2S TL2SS"/>
            <route id="S_N" edges="SS2TL S2TL TL2N TL2NN"/>
        
            <route id="S_W" edges="SS2TL S2TL TL2W TL2WW"/>
            <route id="W_N" edges="WW2TL W2TL TL2N TL2NN"/>
            <route id="N_E" edges="NN2TL N2TL TL2E TL2EE"/>
            <route id="E_S" edges="EE2TL E2TL TL2S TL2SS"/>
        
            <route id="S_E" edges="SS2TL S2TL TL2E TL2EE"/>
            <route id="W_S" edges="WW2TL W2TL TL2S TL2SS"/>
            <route id="N_W" edges="NN2TL N2TL TL2W TL2WW"/>
            <route id="E_N" edges="EE2TL E2TL TL2N TL2NN"/>

            <flow id="WE" route="W_E" type="medium" begin="0" end="5400" probability="0.05" departLane="2" departSpeed="5" /> 
            <flow id="EW" route="E_W" type="medium" begin="0" end="5400" probability="0.05" departLane="2" departSpeed="5" />
            <flow id="NS" route="N_S" type="medium" begin="0" end="5400" probability="0.02" departLane="2" departSpeed="5" />
            <flow id="SN" route="S_N" type="medium" begin="0" end="5400" probability="0.05" departLane="2" departSpeed="5" />

            <flow id="SW" route="S_W" type="slow" begin="0" end="5400" probability="0.05" departLane="1" departSpeed="5" />
            <flow id="WN" route="W_N" type="slow" begin="0" end="5400" probability="0.05" departLane="1" departSpeed="5" />
            <flow id="NE" route="N_E" type="slow" begin="0" end="5400" probability="0.02" departLane="1" departSpeed="5" />
            <flow id="ES" route="E_S" type="slow" begin="0" end="5400" probability="0.05" departLane="1" departSpeed="5" />

            <flow id="SE" route="S_E" type="medium" begin="0" end="5400" probability="0.05" departLane="random" departSpeed="5" />
            <flow id="WS" route="W_S" type="medium" begin="0" end="5400" probability="0.05" departLane="random" departSpeed="5" />
            <flow id="NW" route="N_W" type="fast" begin="0" end="5400" probability="0.02" departLane="random" departSpeed="5" />
            <flow id="EN" route="E_N" type="fast" begin="0" end="5400" probability="0.05" departLane="random" departSpeed="5" />
            
    <vType id="p0" vClass="pedestrian" width="0.5" length="0.21" minGap="0.2" maxSpeed="1.5" guiShape="pedestrian"/>

    <person id="p0" type="p0" depart="0.0" departPos="0">

        <walk from="TL2E" to="TL2W" arrivalPos="-1"/>

    </person>

    <vType id="p1" vClass="pedestrian" width="0.5" length="0.21" minGap="0.2" maxSpeed="1.5" guiShape="pedestrian"/>

    <person id="p1" type="p1" depart="6.0" departPos="0">

        <walk from="TL2N" to="S2TL" arrivalPos="-1"/>

    </person>

    <vType id="p2" vClass="pedestrian" width="0.5" length="0.21" minGap="0.2" maxSpeed="1.5" guiShape="pedestrian"/>

    <person id="p2" type="p2" depart="12.0" departPos="0">

        <walk from="TL2S" to="N2TL" arrivalPos="-1"/>

    </person>

    <vType id="p3" vClass="pedestrian" width="0.5" length="0.21" minGap="0.2" maxSpeed="1.5" guiShape="pedestrian"/>

    <person id="p3" type="p3" depart="17.0" departPos="0">

        <walk from="W2TL" to="E2TL" arrivalPos="-1"/>

    </person>

    <vType id="p4" vClass="pedestrian" width="0.5" length="0.21" minGap="0.2" maxSpeed="1.5" guiShape="pedestrian"/>

    <person id="p4" type="p4" depart="18.0" departPos="0">

        <walk from="TL2N" to="TL2E" arrivalPos="-1"/>

    </person>

    <vType id="p5" vClass="pedestrian" width="0.5" length="0.21" minGap="0.2" maxSpeed="1.5" guiShape="pedestrian"/>

    <person id="p5" type="p5" depart="26.0" departPos="0">

        <walk from="S2TL" to="TL2N" arrivalPos="-1"/>

    </person>

    <vType id="p6" vClass="pedestrian" width="0.5" length="0.21" minGap="0.2" maxSpeed="1.5" guiShape="pedestrian"/>

    <person id="p6" type="p6" depart="34.0" departPos="0">

        <walk from="TL2N" to="TL2E" arrivalPos="-1"/>

    </person>

    <vType id="p7" vClass="pedestrian" width="0.5" length="0.21" minGap="0.2" maxSpeed="1.5" guiShape="pedestrian"/>

    <person id="p7" type="p7" depart="56.0" departPos="0">

        <walk from="S2TL" to="TL2N" arrivalPos="-1"/>

    </person>

    <vType id="p8" vClass="pedestrian" width="0.5" length="0.21" minGap="0.2" maxSpeed="1.5" guiShape="pedestrian"/>

    <person id="p8" type="p8" depart="56.0" departPos="0">

        <walk from="E2TL" to="S2TL" arrivalPos="-1"/>

    </person>

    <vType id="p9" vClass="pedestrian" width="0.5" length="0.21" minGap="0.2" maxSpeed="1.5" guiShape="pedestrian"/>

    <person id="p9" type="p9" depart="57.0" departPos="0">

        <walk from="N2TL" to="TL2S" arrivalPos="-1"/>

    </person>

    <vType id="p10" vClass="pedestrian" width="0.5" length="0.21" minGap="0.2" maxSpeed="1.5" guiShape="pedestrian"/>

    <person id="p10" type="p10" depart="60.0" departPos="0">

        <walk from="TL2S" to="N2TL" arrivalPos="-1"/>

    </person>

    <vType id="p11" vClass="pedestrian" width="0.5" length="0.21" minGap="0.2" maxSpeed="1.5" guiShape="pedestrian"/>

    <person id="p11" type="p11" depart="63.0" departPos="0">

        <walk from="TL2W" to="TL2E" arrivalPos="-1"/>

    </person>

    <vType id="p12" vClass="pedestrian" width="0.5" length="0.21" minGap="0.2" maxSpeed="1.5" guiShape="pedestrian"/>

    <person id="p12" type="p12" depart="86.0" departPos="0">

        <walk from="TL2E" to="TL2N" arrivalPos="-1"/>

    </person>

    <vType id="p13" vClass="pedestrian" width="0.5" length="0.21" minGap="0.2" maxSpeed="1.5" guiShape="pedestrian"/>

    <person id="p13" type="p13" depart="88.0" departPos="0">

        <walk from="TL2E" to="TL2W" arrivalPos="-1"/>

    </person>

    <vType id="p14" vClass="pedestrian" width="0.5" length="0.21" minGap="0.2" maxSpeed="1.5" guiShape="pedestrian"/>

    <person id="p14" type="p14" depart="101.0" departPos="0">

        <walk from="W2TL" to="E2TL" arrivalPos="-1"/>

    </person>

    <vType id="p15" vClass="pedestrian" width="0.5" length="0.21" minGap="0.2" maxSpeed="1.5" guiShape="pedestrian"/>

    <person id="p15" type="p15" depart="104.0" departPos="0">

        <walk from="N2TL" to="TL2W" arrivalPos="-1"/>

    </person>

    <vType id="p16" vClass="pedestrian" width="0.5" length="0.21" minGap="0.2" maxSpeed="1.5" guiShape="pedestrian"/>

    <person id="p16" type="p16" depart="114.0" departPos="0">

        <walk from="TL2E" to="TL2W" arrivalPos="-1"/>

    </person>

    <vType id="p17" vClass="pedestrian" width="0.5" length="0.21" minGap="0.2" maxSpeed="1.5" guiShape="pedestrian"/>

    <person id="p17" type="p17" depart="130.0" departPos="0">

        <walk from="TL2W" to="TL2E" arrivalPos="-1"/>

    </person>

    <vType id="p18" vClass="pedestrian" width="0.5" length="0.21" minGap="0.2" maxSpeed="1.5" guiShape="pedestrian"/>

    <person id="p18" type="p18" depart="131.0" departPos="0">

        <walk from="W2TL" to="E2TL" arrivalPos="-1"/>

    </person>

    <vType id="p19" vClass="pedestrian" width="0.5" length="0.21" minGap="0.2" maxSpeed="1.5" guiShape="pedestrian"/>

    <person id="p19" type="p19" depart="134.0" departPos="0">

        <walk from="TL2S" to="N2TL" arrivalPos="-1"/>

    </person>

    <vType id="p20" vClass="pedestrian" width="0.5" length="0.21" minGap="0.2" maxSpeed="1.5" guiShape="pedestrian"/>

    <person id="p20" type="p20" depart="149.0" departPos="0">

        <walk from="N2TL" to="TL2W" arrivalPos="-1"/>

    </person>

    <vType id="p21" vClass="pedestrian" width="0.5" length="0.21" minGap="0.2" maxSpeed="1.5" guiShape="pedestrian"/>

    <person id="p21" type="p21" depart="163.0" departPos="0">

        <walk from="TL2W" to="TL2E" arrivalPos="-1"/>

    </person>

    <vType id="p22" vClass="pedestrian" width="0.5" length="0.21" minGap="0.2" maxSpeed="1.5" guiShape="pedestrian"/>

    <person id="p22" type="p22" depart="168.0" departPos="0">

        <walk from="TL2N" to="S2TL" arrivalPos="-1"/>

    </person>

    <vType id="p23" vClass="pedestrian" width="0.5" length="0.21" minGap="0.2" maxSpeed="1.5" guiShape="pedestrian"/>

    <person id="p23" type="p23" depart="185.0" departPos="0">

        <walk from="S2TL" to="E2TL" arrivalPos="-1"/>

    </person>

    <vType id="p24" vClass="pedestrian" width="0.5" length="0.21" minGap="0.2" maxSpeed="1.5" guiShape="pedestrian"/>

    <person id="p24" type="p24" depart="197.0" departPos="0">

        <walk from="E2TL" to="W2TL" arrivalPos="-1"/>

    </person>

    <vType id="p25" vClass="pedestrian" width="0.5" length="0.21" minGap="0.2" maxSpeed="1.5" guiShape="pedestrian"/>

    <person id="p25" type="p25" depart="199.0" departPos="0">

        <walk from="E2TL" to="S2TL" arrivalPos="-1"/>

    </person>

    <vType id="p26" vClass="pedestrian" width="0.5" length="0.21" minGap="0.2" maxSpeed="1.5" guiShape="pedestrian"/>

    <person id="p26" type="p26" depart="204.0" departPos="0">

        <walk from="N2TL" to="TL2S" arrivalPos="-1"/>

    </person>

    <vType id="p27" vClass="pedestrian" width="0.5" length="0.21" minGap="0.2" maxSpeed="1.5" guiShape="pedestrian"/>

    <person id="p27" type="p27" depart="204.0" departPos="0">

        <walk from="S2TL" to="TL2N" arrivalPos="-1"/>

    </person>

    <vType id="p28" vClass="pedestrian" width="0.5" length="0.21" minGap="0.2" maxSpeed="1.5" guiShape="pedestrian"/>

    <person id="p28" type="p28" depart="208.0" departPos="0">

        <walk from="TL2S" to="N2TL" arrivalPos="-1"/>

    </person>

    <vType id="p29" vClass="pedestrian" width="0.5" length="0.21" minGap="0.2" maxSpeed="1.5" guiShape="pedestrian"/>

    <person id="p29" type="p29" depart="223.0" departPos="0">

        <walk from="N2TL" to="TL2S" arrivalPos="-1"/>

    </person>

    <vType id="p30" vClass="pedestrian" width="0.5" length="0.21" minGap="0.2" maxSpeed="1.5" guiShape="pedestrian"/>

    <person id="p30" type="p30" depart="223.0" departPos="0">

        <walk from="W2TL" to="E2TL" arrivalPos="-1"/>

    </person>

    <vType id="p31" vClass="pedestrian" width="0.5" length="0.21" minGap="0.2" maxSpeed="1.5" guiShape="pedestrian"/>

    <person id="p31" type="p31" depart="228.0" departPos="0">

        <walk from="W2TL" to="E2TL" arrivalPos="-1"/>

    </person>

    <vType id="p32" vClass="pedestrian" width="0.5" length="0.21" minGap="0.2" maxSpeed="1.5" guiShape="pedestrian"/>

    <person id="p32" type="p32" depart="229.0" departPos="0">

        <walk from="S2TL" to="TL2N" arrivalPos="-1"/>

    </person>

    <vType id="p33" vClass="pedestrian" width="0.5" length="0.21" minGap="0.2" maxSpeed="1.5" guiShape="pedestrian"/>

    <person id="p33" type="p33" depart="249.0" departPos="0">

        <walk from="TL2E" to="TL2W" arrivalPos="-1"/>

    </person>

    <vType id="p34" vClass="pedestrian" width="0.5" length="0.21" minGap="0.2" maxSpeed="1.5" guiShape="pedestrian"/>

    <person id="p34" type="p34" depart="250.0" departPos="0">

        <walk from="TL2S" to="W2TL" arrivalPos="-1"/>

    </person>

    <vType id="p35" vClass="pedestrian" width="0.5" length="0.21" minGap="0.2" maxSpeed="1.5" guiShape="pedestrian"/>

    <person id="p35" type="p35" depart="256.0" departPos="0">

        <walk from="E2TL" to="S2TL" arrivalPos="-1"/>

    </person>

    <vType id="p36" vClass="pedestrian" width="0.5" length="0.21" minGap="0.2" maxSpeed="1.5" guiShape="pedestrian"/>

    <person id="p36" type="p36" depart="261.0" departPos="0">

        <walk from="TL2W" to="TL2E" arrivalPos="-1"/>

    </person>

    <vType id="p37" vClass="pedestrian" width="0.5" length="0.21" minGap="0.2" maxSpeed="1.5" guiShape="pedestrian"/>

    <person id="p37" type="p37" depart="269.0" departPos="0">

        <walk from="TL2E" to="TL2W" arrivalPos="-1"/>

    </person>

    <vType id="p38" vClass="pedestrian" width="0.5" length="0.21" minGap="0.2" maxSpeed="1.5" guiShape="pedestrian"/>

    <person id="p38" type="p38" depart="270.0" departPos="0">

        <walk from="TL2W" to="TL2E" arrivalPos="-1"/>

    </person>

    <vType id="p39" vClass="pedestrian" width="0.5" length="0.21" minGap="0.2" maxSpeed="1.5" guiShape="pedestrian"/>

    <person id="p39" type="p39" depart="281.0" departPos="0">

        <walk from="N2TL" to="TL2W" arrivalPos="-1"/>

    </person>

    <vType id="p40" vClass="pedestrian" width="0.5" length="0.21" minGap="0.2" maxSpeed="1.5" guiShape="pedestrian"/>

    <person id="p40" type="p40" depart="284.0" departPos="0">

        <walk from="E2TL" to="W2TL" arrivalPos="-1"/>

    </person>

    <vType id="p41" vClass="pedestrian" width="0.5" length="0.21" minGap="0.2" maxSpeed="1.5" guiShape="pedestrian"/>

    <person id="p41" type="p41" depart="298.0" departPos="0">

        <walk from="E2TL" to="W2TL" arrivalPos="-1"/>

    </person>

    <vType id="p42" vClass="pedestrian" width="0.5" length="0.21" minGap="0.2" maxSpeed="1.5" guiShape="pedestrian"/>

    <person id="p42" type="p42" depart="307.0" departPos="0">

        <walk from="TL2S" to="N2TL" arrivalPos="-1"/>

    </person>

    <vType id="p43" vClass="pedestrian" width="0.5" length="0.21" minGap="0.2" maxSpeed="1.5" guiShape="pedestrian"/>

    <person id="p43" type="p43" depart="323.0" departPos="0">

        <walk from="TL2E" to="TL2W" arrivalPos="-1"/>

    </person>

    <vType id="p44" vClass="pedestrian" width="0.5" length="0.21" minGap="0.2" maxSpeed="1.5" guiShape="pedestrian"/>

    <person id="p44" type="p44" depart="327.0" departPos="0">

        <walk from="E2TL" to="W2TL" arrivalPos="-1"/>

    </person>

    <vType id="p45" vClass="pedestrian" width="0.5" length="0.21" minGap="0.2" maxSpeed="1.5" guiShape="pedestrian"/>

    <person id="p45" type="p45" depart="328.0" departPos="0">

        <walk from="TL2S" to="N2TL" arrivalPos="-1"/>

    </person>

    <vType id="p46" vClass="pedestrian" width="0.5" length="0.21" minGap="0.2" maxSpeed="1.5" guiShape="pedestrian"/>

    <person id="p46" type="p46" depart="333.0" departPos="0">

        <walk from="E2TL" to="S2TL" arrivalPos="-1"/>

    </person>

    <vType id="p47" vClass="pedestrian" width="0.5" length="0.21" minGap="0.2" maxSpeed="1.5" guiShape="pedestrian"/>

    <person id="p47" type="p47" depart="338.0" departPos="0">

        <walk from="TL2W" to="TL2E" arrivalPos="-1"/>

    </person>

    <vType id="p48" vClass="pedestrian" width="0.5" length="0.21" minGap="0.2" maxSpeed="1.5" guiShape="pedestrian"/>

    <person id="p48" type="p48" depart="339.0" departPos="0">

        <walk from="N2TL" to="TL2S" arrivalPos="-1"/>

    </person>

    <vType id="p49" vClass="pedestrian" width="0.5" length="0.21" minGap="0.2" maxSpeed="1.5" guiShape="pedestrian"/>

    <person id="p49" type="p49" depart="347.0" departPos="0">

        <walk from="E2TL" to="W2TL" arrivalPos="-1"/>

    </person>

    <vType id="p50" vClass="pedestrian" width="0.5" length="0.21" minGap="0.2" maxSpeed="1.5" guiShape="pedestrian"/>

    <person id="p50" type="p50" depart="350.0" departPos="0">

        <walk from="TL2N" to="S2TL" arrivalPos="-1"/>

    </person>

    <vType id="p51" vClass="pedestrian" width="0.5" length="0.21" minGap="0.2" maxSpeed="1.5" guiShape="pedestrian"/>

    <person id="p51" type="p51" depart="353.0" departPos="0">

        <walk from="N2TL" to="TL2S" arrivalPos="-1"/>

    </person>

    <vType id="p52" vClass="pedestrian" width="0.5" length="0.21" minGap="0.2" maxSpeed="1.5" guiShape="pedestrian"/>

    <person id="p52" type="p52" depart="353.0" departPos="0">

        <walk from="W2TL" to="E2TL" arrivalPos="-1"/>

    </person>

    <vType id="p53" vClass="pedestrian" width="0.5" length="0.21" minGap="0.2" maxSpeed="1.5" guiShape="pedestrian"/>

    <person id="p53" type="p53" depart="359.0" departPos="0">

        <walk from="N2TL" to="TL2S" arrivalPos="-1"/>

    </person>

    <vType id="p54" vClass="pedestrian" width="0.5" length="0.21" minGap="0.2" maxSpeed="1.5" guiShape="pedestrian"/>

    <person id="p54" type="p54" depart="362.0" departPos="0">

        <walk from="N2TL" to="TL2S" arrivalPos="-1"/>

    </person>

    <vType id="p55" vClass="pedestrian" width="0.5" length="0.21" minGap="0.2" maxSpeed="1.5" guiShape="pedestrian"/>

    <person id="p55" type="p55" depart="370.0" departPos="0">

        <walk from="W2TL" to="E2TL" arrivalPos="-1"/>

    </person>

    <vType id="p56" vClass="pedestrian" width="0.5" length="0.21" minGap="0.2" maxSpeed="1.5" guiShape="pedestrian"/>

    <person id="p56" type="p56" depart="370.0" departPos="0">

        <walk from="TL2N" to="TL2E" arrivalPos="-1"/>

    </person>

    <vType id="p57" vClass="pedestrian" width="0.5" length="0.21" minGap="0.2" maxSpeed="1.5" guiShape="pedestrian"/>

    <person id="p57" type="p57" depart="371.0" departPos="0">

        <walk from="W2TL" to="E2TL" arrivalPos="-1"/>

    </person>

    <vType id="p58" vClass="pedestrian" width="0.5" length="0.21" minGap="0.2" maxSpeed="1.5" guiShape="pedestrian"/>

    <person id="p58" type="p58" depart="372.0" departPos="0">

        <walk from="N2TL" to="TL2S" arrivalPos="-1"/>

    </person>

    <vType id="p59" vClass="pedestrian" width="0.5" length="0.21" minGap="0.2" maxSpeed="1.5" guiShape="pedestrian"/>

    <person id="p59" type="p59" depart="372.0" departPos="0">

        <walk from="TL2E" to="TL2W" arrivalPos="-1"/>

    </person>

    <vType id="p60" vClass="pedestrian" width="0.5" length="0.21" minGap="0.2" maxSpeed="1.5" guiShape="pedestrian"/>

    <person id="p60" type="p60" depart="377.0" departPos="0">

        <walk from="TL2S" to="W2TL" arrivalPos="-1"/>

    </person>

    <vType id="p61" vClass="pedestrian" width="0.5" length="0.21" minGap="0.2" maxSpeed="1.5" guiShape="pedestrian"/>

    <person id="p61" type="p61" depart="383.0" departPos="0">

        <walk from="TL2W" to="TL2E" arrivalPos="-1"/>

    </person>

    <vType id="p62" vClass="pedestrian" width="0.5" length="0.21" minGap="0.2" maxSpeed="1.5" guiShape="pedestrian"/>

    <person id="p62" type="p62" depart="386.0" departPos="0">

        <walk from="TL2W" to="N2TL" arrivalPos="-1"/>

    </person>

    <vType id="p63" vClass="pedestrian" width="0.5" length="0.21" minGap="0.2" maxSpeed="1.5" guiShape="pedestrian"/>

    <person id="p63" type="p63" depart="398.0" departPos="0">

        <walk from="TL2N" to="S2TL" arrivalPos="-1"/>

    </person>

    <vType id="p64" vClass="pedestrian" width="0.5" length="0.21" minGap="0.2" maxSpeed="1.5" guiShape="pedestrian"/>

    <person id="p64" type="p64" depart="399.0" departPos="0">

        <walk from="S2TL" to="TL2N" arrivalPos="-1"/>

    </person>

    <vType id="p65" vClass="pedestrian" width="0.5" length="0.21" minGap="0.2" maxSpeed="1.5" guiShape="pedestrian"/>

    <person id="p65" type="p65" depart="409.0" departPos="0">

        <walk from="TL2E" to="TL2W" arrivalPos="-1"/>

    </person>

    <vType id="p66" vClass="pedestrian" width="0.5" length="0.21" minGap="0.2" maxSpeed="1.5" guiShape="pedestrian"/>

    <person id="p66" type="p66" depart="411.0" departPos="0">

        <walk from="TL2E" to="TL2N" arrivalPos="-1"/>

    </person>

    <vType id="p67" vClass="pedestrian" width="0.5" length="0.21" minGap="0.2" maxSpeed="1.5" guiShape="pedestrian"/>

    <person id="p67" type="p67" depart="412.0" departPos="0">

        <walk from="TL2W" to="TL2E" arrivalPos="-1"/>

    </person>

    <vType id="p68" vClass="pedestrian" width="0.5" length="0.21" minGap="0.2" maxSpeed="1.5" guiShape="pedestrian"/>

    <person id="p68" type="p68" depart="414.0" departPos="0">

        <walk from="N2TL" to="TL2S" arrivalPos="-1"/>

    </person>

    <vType id="p69" vClass="pedestrian" width="0.5" length="0.21" minGap="0.2" maxSpeed="1.5" guiShape="pedestrian"/>

    <person id="p69" type="p69" depart="421.0" departPos="0">

        <walk from="E2TL" to="S2TL" arrivalPos="-1"/>

    </person>

    <vType id="p70" vClass="pedestrian" width="0.5" length="0.21" minGap="0.2" maxSpeed="1.5" guiShape="pedestrian"/>

    <person id="p70" type="p70" depart="423.0" departPos="0">

        <walk from="E2TL" to="W2TL" arrivalPos="-1"/>

    </person>

    <vType id="p71" vClass="pedestrian" width="0.5" length="0.21" minGap="0.2" maxSpeed="1.5" guiShape="pedestrian"/>

    <person id="p71" type="p71" depart="424.0" departPos="0">

        <walk from="N2TL" to="TL2S" arrivalPos="-1"/>

    </person>

    <vType id="p72" vClass="pedestrian" width="0.5" length="0.21" minGap="0.2" maxSpeed="1.5" guiShape="pedestrian"/>

    <person id="p72" type="p72" depart="448.0" departPos="0">

        <walk from="S2TL" to="TL2N" arrivalPos="-1"/>

    </person>

    <vType id="p73" vClass="pedestrian" width="0.5" length="0.21" minGap="0.2" maxSpeed="1.5" guiShape="pedestrian"/>

    <person id="p73" type="p73" depart="454.0" departPos="0">

        <walk from="N2TL" to="TL2W" arrivalPos="-1"/>

    </person>

    <vType id="p74" vClass="pedestrian" width="0.5" length="0.21" minGap="0.2" maxSpeed="1.5" guiShape="pedestrian"/>

    <person id="p74" type="p74" depart="468.0" departPos="0">

        <walk from="TL2W" to="TL2E" arrivalPos="-1"/>

    </person>

    <vType id="p75" vClass="pedestrian" width="0.5" length="0.21" minGap="0.2" maxSpeed="1.5" guiShape="pedestrian"/>

    <person id="p75" type="p75" depart="475.0" departPos="0">

        <walk from="S2TL" to="TL2N" arrivalPos="-1"/>

    </person>

    <vType id="p76" vClass="pedestrian" width="0.5" length="0.21" minGap="0.2" maxSpeed="1.5" guiShape="pedestrian"/>

    <person id="p76" type="p76" depart="496.0" departPos="0">

        <walk from="S2TL" to="TL2N" arrivalPos="-1"/>

    </person>

    <vType id="p77" vClass="pedestrian" width="0.5" length="0.21" minGap="0.2" maxSpeed="1.5" guiShape="pedestrian"/>

    <person id="p77" type="p77" depart="527.0" departPos="0">

        <walk from="E2TL" to="W2TL" arrivalPos="-1"/>

    </person>

    <vType id="p78" vClass="pedestrian" width="0.5" length="0.21" minGap="0.2" maxSpeed="1.5" guiShape="pedestrian"/>

    <person id="p78" type="p78" depart="549.0" departPos="0">

        <walk from="TL2W" to="TL2E" arrivalPos="-1"/>

    </person>

    <vType id="p79" vClass="pedestrian" width="0.5" length="0.21" minGap="0.2" maxSpeed="1.5" guiShape="pedestrian"/>

    <person id="p79" type="p79" depart="560.0" departPos="0">

        <walk from="E2TL" to="S2TL" arrivalPos="-1"/>

    </person>

    <vType id="p80" vClass="pedestrian" width="0.5" length="0.21" minGap="0.2" maxSpeed="1.5" guiShape="pedestrian"/>

    <person id="p80" type="p80" depart="567.0" departPos="0">

        <walk from="TL2W" to="TL2E" arrivalPos="-1"/>

    </person>

    <vType id="p81" vClass="pedestrian" width="0.5" length="0.21" minGap="0.2" maxSpeed="1.5" guiShape="pedestrian"/>

    <person id="p81" type="p81" depart="587.0" departPos="0">

        <walk from="W2TL" to="E2TL" arrivalPos="-1"/>

    </person>

    <vType id="p82" vClass="pedestrian" width="0.5" length="0.21" minGap="0.2" maxSpeed="1.5" guiShape="pedestrian"/>

    <person id="p82" type="p82" depart="588.0" departPos="0">

        <walk from="E2TL" to="W2TL" arrivalPos="-1"/>

    </person>

    <vType id="p83" vClass="pedestrian" width="0.5" length="0.21" minGap="0.2" maxSpeed="1.5" guiShape="pedestrian"/>

    <person id="p83" type="p83" depart="589.0" departPos="0">

        <walk from="W2TL" to="E2TL" arrivalPos="-1"/>

    </person>

    <vType id="p84" vClass="pedestrian" width="0.5" length="0.21" minGap="0.2" maxSpeed="1.5" guiShape="pedestrian"/>

    <person id="p84" type="p84" depart="600.0" departPos="0">

        <walk from="TL2E" to="TL2W" arrivalPos="-1"/>

    </person>

    <vType id="p85" vClass="pedestrian" width="0.5" length="0.21" minGap="0.2" maxSpeed="1.5" guiShape="pedestrian"/>

    <person id="p85" type="p85" depart="603.0" departPos="0">

        <walk from="TL2E" to="TL2W" arrivalPos="-1"/>

    </person>

    <vType id="p86" vClass="pedestrian" width="0.5" length="0.21" minGap="0.2" maxSpeed="1.5" guiShape="pedestrian"/>

    <person id="p86" type="p86" depart="611.0" departPos="0">

        <walk from="TL2N" to="S2TL" arrivalPos="-1"/>

    </person>

    <vType id="p87" vClass="pedestrian" width="0.5" length="0.21" minGap="0.2" maxSpeed="1.5" guiShape="pedestrian"/>

    <person id="p87" type="p87" depart="611.0" departPos="0">

        <walk from="TL2S" to="W2TL" arrivalPos="-1"/>

    </person>

    <vType id="p88" vClass="pedestrian" width="0.5" length="0.21" minGap="0.2" maxSpeed="1.5" guiShape="pedestrian"/>

    <person id="p88" type="p88" depart="613.0" departPos="0">

        <walk from="W2TL" to="E2TL" arrivalPos="-1"/>

    </person>

    <vType id="p89" vClass="pedestrian" width="0.5" length="0.21" minGap="0.2" maxSpeed="1.5" guiShape="pedestrian"/>

    <person id="p89" type="p89" depart="614.0" departPos="0">

        <walk from="E2TL" to="W2TL" arrivalPos="-1"/>

    </person>

    <vType id="p90" vClass="pedestrian" width="0.5" length="0.21" minGap="0.2" maxSpeed="1.5" guiShape="pedestrian"/>

    <person id="p90" type="p90" depart="626.0" departPos="0">

        <walk from="TL2N" to="TL2S" arrivalPos="-1"/>

    </person>

    <vType id="p91" vClass="pedestrian" width="0.5" length="0.21" minGap="0.2" maxSpeed="1.5" guiShape="pedestrian"/>

    <person id="p91" type="p91" depart="644.0" departPos="0">

        <walk from="TL2S" to="N2TL" arrivalPos="-1"/>

    </person>

    <vType id="p92" vClass="pedestrian" width="0.5" length="0.21" minGap="0.2" maxSpeed="1.5" guiShape="pedestrian"/>

    <person id="p92" type="p92" depart="647.0" departPos="0">

        <walk from="S2TL" to="TL2N" arrivalPos="-1"/>

    </person>

    <vType id="p93" vClass="pedestrian" width="0.5" length="0.21" minGap="0.2" maxSpeed="1.5" guiShape="pedestrian"/>

    <person id="p93" type="p93" depart="657.0" departPos="0">

        <walk from="W2TL" to="E2TL" arrivalPos="-1"/>

    </person>

    <vType id="p94" vClass="pedestrian" width="0.5" length="0.21" minGap="0.2" maxSpeed="1.5" guiShape="pedestrian"/>

    <person id="p94" type="p94" depart="669.0" departPos="0">

        <walk from="TL2E" to="TL2W" arrivalPos="-1"/>

    </person>

    <vType id="p95" vClass="pedestrian" width="0.5" length="0.21" minGap="0.2" maxSpeed="1.5" guiShape="pedestrian"/>

    <person id="p95" type="p95" depart="671.0" departPos="0">

        <walk from="TL2S" to="N2TL" arrivalPos="-1"/>

    </person>

    <vType id="p96" vClass="pedestrian" width="0.5" length="0.21" minGap="0.2" maxSpeed="1.5" guiShape="pedestrian"/>

    <person id="p96" type="p96" depart="674.0" departPos="0">

        <walk from="W2TL" to="E2TL" arrivalPos="-1"/>

    </person>

    <vType id="p97" vClass="pedestrian" width="0.5" length="0.21" minGap="0.2" maxSpeed="1.5" guiShape="pedestrian"/>

    <person id="p97" type="p97" depart="689.0" departPos="0">

        <walk from="TL2E" to="TL2N" arrivalPos="-1"/>

    </person>

    <vType id="p98" vClass="pedestrian" width="0.5" length="0.21" minGap="0.2" maxSpeed="1.5" guiShape="pedestrian"/>

    <person id="p98" type="p98" depart="692.0" departPos="0">

        <walk from="TL2S" to="W2TL" arrivalPos="-1"/>

    </person>

    <vType id="p99" vClass="pedestrian" width="0.5" length="0.21" minGap="0.2" maxSpeed="1.5" guiShape="pedestrian"/>

    <person id="p99" type="p99" depart="698.0" departPos="0">

        <walk from="S2TL" to="TL2N" arrivalPos="-1"/>

    </person>

    <vType id="p100" vClass="pedestrian" width="0.5" length="0.21" minGap="0.2" maxSpeed="1.5" guiShape="pedestrian"/>

    <person id="p100" type="p100" depart="716.0" departPos="0">

        <walk from="E2TL" to="W2TL" arrivalPos="-1"/>

    </person>

    <vType id="p101" vClass="pedestrian" width="0.5" length="0.21" minGap="0.2" maxSpeed="1.5" guiShape="pedestrian"/>

    <person id="p101" type="p101" depart="723.0" departPos="0">

        <walk from="TL2S" to="N2TL" arrivalPos="-1"/>

    </person>

    <vType id="p102" vClass="pedestrian" width="0.5" length="0.21" minGap="0.2" maxSpeed="1.5" guiShape="pedestrian"/>

    <person id="p102" type="p102" depart="723.0" departPos="0">

        <walk from="TL2E" to="TL2W" arrivalPos="-1"/>

    </person>

    <vType id="p103" vClass="pedestrian" width="0.5" length="0.21" minGap="0.2" maxSpeed="1.5" guiShape="pedestrian"/>

    <person id="p103" type="p103" depart="734.0" departPos="0">

        <walk from="N2TL" to="TL2W" arrivalPos="-1"/>

    </person>

    <vType id="p104" vClass="pedestrian" width="0.5" length="0.21" minGap="0.2" maxSpeed="1.5" guiShape="pedestrian"/>

    <person id="p104" type="p104" depart="739.0" departPos="0">

        <walk from="TL2W" to="TL2E" arrivalPos="-1"/>

    </person>

    <vType id="p105" vClass="pedestrian" width="0.5" length="0.21" minGap="0.2" maxSpeed="1.5" guiShape="pedestrian"/>

    <person id="p105" type="p105" depart="746.0" departPos="0">

        <walk from="N2TL" to="TL2S" arrivalPos="-1"/>

    </person>

    <vType id="p106" vClass="pedestrian" width="0.5" length="0.21" minGap="0.2" maxSpeed="1.5" guiShape="pedestrian"/>

    <person id="p106" type="p106" depart="751.0" departPos="0">

        <walk from="TL2W" to="N2TL" arrivalPos="-1"/>

    </person>

    <vType id="p107" vClass="pedestrian" width="0.5" length="0.21" minGap="0.2" maxSpeed="1.5" guiShape="pedestrian"/>

    <person id="p107" type="p107" depart="768.0" departPos="0">

        <walk from="S2TL" to="TL2N" arrivalPos="-1"/>

    </person>
