<?xml version="1.0" encoding="UTF-8"?>

<!-- generated on 2022-03-12 17:13:11 by Eclipse SUMO netedit Version 1.12.0
<configuration xmlns:xsi="http://www.w3.org/2001/XMLSchema-instance" xsi:noNamespaceSchemaLocation="http://sumo.dlr.de/xsd/netconvertConfiguration.xsd">

    <input>
        <sumo-net-file value="/home/bv16039/Documents/sumo_sim/scramble_test/scenario_scramble.net.xml"/>
    </input>

    <output>
        <output-file value="/home/bv16039/Documents/sumo_sim/scramble_test/scenario_scramble.net.xml"/>
    </output>

    <processing>
        <geometry.min-radius.fix.railways value="false"/>
        <geometry.max-grade.fix value="false"/>
        <offset.disable-normalization value="true"/>
        <lefthand value="true"/>
    </processing>

    <junctions>
        <no-internal-links value="false"/>
        <no-turnarounds value="true"/>
        <junctions.corner-detail value="5"/>
        <junctions.limit-turn-speed value="5.5"/>
        <rectangular-lane-cut value="false"/>
    </junctions>

    <pedestrian>
        <walkingareas value="false"/>
    </pedestrian>

    <report>
        <aggregate-warnings value="5"/>
    </report>

</configuration>
-->

<net version="1.9" junctionCornerDetail="5" lefthand="true" limitTurnSpeed="5.50" xmlns:xsi="http://www.w3.org/2001/XMLSchema-instance" xsi:noNamespaceSchemaLocation="http://sumo.dlr.de/xsd/net_file.xsd">

    <location netOffset="0.00,0.00" convBoundary="-100.00,-150.00,200.00,150.00" origBoundary="-10000000000.00,-10000000000.00,10000000000.00,10000000000.00" projParameter="!"/>

    <edge id=":E_0" function="internal">
        <lane id=":E_0_0" index="0" disallow="pedestrian rail_fast" speed="13.89" length="3.00" shape="101.50,-8.00 98.50,-8.00"/>
        <lane id=":E_0_1" index="1" disallow="pedestrian rail_fast" speed="13.89" length="3.00" shape="101.50,-4.80 98.50,-4.80"/>
        <lane id=":E_0_2" index="2" disallow="pedestrian rail_fast" speed="13.89" length="3.00" shape="101.50,-1.60 98.50,-1.60"/>
    </edge>
    <edge id=":E_3" function="internal">
        <lane id=":E_3_0" index="0" disallow="pedestrian rail_fast" speed="13.89" length="3.00" shape="98.50,8.00 101.50,8.00"/>
        <lane id=":E_3_1" index="1" disallow="pedestrian rail_fast" speed="13.89" length="3.00" shape="98.50,4.80 101.50,4.80"/>
        <lane id=":E_3_2" index="2" disallow="pedestrian rail_fast" speed="13.89" length="3.00" shape="98.50,1.60 101.50,1.60"/>
    </edge>
    <edge id=":E_w0" function="walkingarea">
        <lane id=":E_w0_0" index="0" allow="pedestrian" speed="1.00" length="13.80" width="3.20" shape="98.50,-9.60 98.50,-11.60 101.50,-9.60 101.50,-6.40 101.50,-6.40 101.50,-3.20 101.50,-3.20 101.50,-0.00 101.50,-0.00 101.50,3.20 101.50,3.20 101.50,6.40 101.50,6.40 101.50,9.60 98.50,11.60 98.50,9.60"/>
    </edge>
    <edge id=":EED_w0" function="walkingarea">
        <lane id=":EED_w0_0" index="0" allow="pedestrian" speed="1.00" length="16.00" width="3.20" shape="200.00,-0.00 200.00,-3.20 200.00,-3.20 200.00,-6.40 200.00,-6.40 200.00,-9.60 200.00,9.60 200.00,6.40 200.00,6.40 200.00,3.20 200.00,3.20 200.00,-0.00"/>
    </edge>
    <edge id=":N_0" function="internal">
        <lane id=":N_0_0" index="0" disallow="pedestrian rail_fast" speed="13.89" length="3.00" shape="42.00,48.50 42.00,51.50"/>
        <lane id=":N_0_1" index="1" disallow="pedestrian rail_fast" speed="13.89" length="3.00" shape="45.20,48.50 45.20,51.50"/>
        <lane id=":N_0_2" index="2" disallow="pedestrian rail_fast" speed="13.89" length="3.00" shape="48.40,48.50 48.40,51.50"/>
    </edge>
    <edge id=":N_3" function="internal">
        <lane id=":N_3_0" index="0" disallow="pedestrian rail_fast" speed="13.89" length="3.00" shape="58.00,51.50 58.00,48.50"/>
        <lane id=":N_3_1" index="1" disallow="pedestrian rail_fast" speed="13.89" length="3.00" shape="54.80,51.50 54.80,48.50"/>
        <lane id=":N_3_2" index="2" disallow="pedestrian rail_fast" speed="13.89" length="3.00" shape="51.60,51.50 51.60,48.50"/>
    </edge>
    <edge id=":N_w0" function="walkingarea">
        <lane id=":N_w0_0" index="0" allow="pedestrian" speed="1.00" length="13.80" width="3.20" shape="59.60,48.50 61.60,48.50 59.60,51.50 56.40,51.50 56.40,51.50 53.20,51.50 53.20,51.50 50.00,51.50 50.00,51.50 46.80,51.50 46.80,51.50 43.60,51.50 43.60,51.50 40.40,51.50 38.40,48.50 40.40,48.50"/>
    </edge>
    <edge id=":NED_w0" function="walkingarea">
        <lane id=":NED_w0_0" index="0" allow="pedestrian" speed="1.00" length="16.00" width="3.20" shape="50.00,150.00 53.20,150.00 53.20,150.00 56.40,150.00 56.40,150.00 59.60,150.00 40.40,150.00 43.60,150.00 43.60,150.00 46.80,150.00 46.80,150.00 50.00,150.00"/>
    </edge>
    <edge id=":S_0" function="internal">
        <lane id=":S_0_0" index="0" disallow="pedestrian rail_fast" speed="13.89" length="3.00" shape="42.00,-51.50 42.00,-48.50"/>
        <lane id=":S_0_1" index="1" disallow="pedestrian rail_fast" speed="13.89" length="3.00" shape="45.20,-51.50 45.20,-48.50"/>
        <lane id=":S_0_2" index="2" disallow="pedestrian rail_fast" speed="13.89" length="3.00" shape="48.40,-51.50 48.40,-48.50"/>
    </edge>
    <edge id=":S_3" function="internal">
        <lane id=":S_3_0" index="0" disallow="pedestrian rail_fast" speed="13.89" length="3.00" shape="58.00,-48.50 58.00,-51.50"/>
        <lane id=":S_3_1" index="1" disallow="pedestrian rail_fast" speed="13.89" length="3.00" shape="54.80,-48.50 54.80,-51.50"/>
        <lane id=":S_3_2" index="2" disallow="pedestrian rail_fast" speed="13.89" length="3.00" shape="51.60,-48.50 51.60,-51.50"/>
    </edge>
    <edge id=":S_w0" function="walkingarea">
        <lane id=":S_w0_0" index="0" allow="pedestrian" speed="1.00" length="13.80" width="3.20" shape="40.40,-48.50 38.40,-48.50 40.40,-51.50 43.60,-51.50 43.60,-51.50 46.80,-51.50 46.80,-51.50 50.00,-51.50 50.00,-51.50 53.20,-51.50 53.20,-51.50 56.40,-51.50 56.40,-51.50 59.60,-51.50 61.60,-48.50 59.60,-48.50"/>
    </edge>
    <edge id=":SED_w0" function="walkingarea">
        <lane id=":SED_w0_0" index="0" allow="pedestrian" speed="1.00" length="16.00" width="3.20" shape="50.00,-150.00 46.80,-150.00 46.80,-150.00 43.60,-150.00 43.60,-150.00 40.40,-150.00 59.60,-150.00 56.40,-150.00 56.40,-150.00 53.20,-150.00 53.20,-150.00 50.00,-150.00"/>
    </edge>
    <edge id=":TL_0" function="internal">
        <lane id=":TL_0_0" index="0" disallow="pedestrian rail_fast" speed="8.33" length="11.44" shape="42.00,-17.60 41.40,-13.40 39.60,-10.40 36.60,-8.60 36.40,-8.57"/>
    </edge>
    <edge id=":TL_1" function="internal">
        <lane id=":TL_1_0" index="0" disallow="pedestrian rail_fast" speed="13.89" length="35.20" shape="42.00,-17.60 42.00,17.60"/>
        <lane id=":TL_1_1" index="1" disallow="pedestrian rail_fast" speed="13.89" length="35.20" shape="45.20,-17.60 45.20,17.60"/>
        <lane id=":TL_1_2" index="2" disallow="pedestrian rail_fast" speed="13.89" length="35.20" shape="48.40,-17.60 48.40,17.60"/>
    </edge>
    <edge id=":TL_4" function="internal">
        <lane id=":TL_4_0" index="0" disallow="pedestrian rail_fast" speed="11.60" length="2.51" shape="48.40,-17.60 48.76,-15.11"/>
    </edge>
    <edge id=":TL_20" function="internal">
        <lane id=":TL_20_0" index="0" disallow="pedestrian rail_fast" speed="8.33" length="4.04" shape="36.40,-8.57 32.40,-8.00"/>
    </edge>
    <edge id=":TL_21" function="internal">
        <lane id=":TL_21_0" index="0" disallow="pedestrian rail_fast" speed="11.60" length="28.45" shape="48.76,-15.11 49.60,-9.20 53.20,-3.20 59.20,0.40 67.60,1.60"/>
    </edge>
    <edge id=":TL_5" function="internal">
        <lane id=":TL_5_0" index="0" disallow="pedestrian rail_fast" speed="8.33" length="11.44" shape="67.60,-8.00 63.40,-8.60 60.40,-10.40 58.60,-13.40 58.57,-13.60"/>
    </edge>
    <edge id=":TL_6" function="internal">
        <lane id=":TL_6_0" index="0" disallow="pedestrian rail_fast" speed="13.89" length="35.20" shape="67.60,-8.00 32.40,-8.00"/>
        <lane id=":TL_6_1" index="1" disallow="pedestrian rail_fast" speed="13.89" length="35.20" shape="67.60,-4.80 32.40,-4.80"/>
        <lane id=":TL_6_2" index="2" disallow="pedestrian rail_fast" speed="13.89" length="35.20" shape="67.60,-1.60 32.40,-1.60"/>
    </edge>
    <edge id=":TL_9" function="internal">
        <lane id=":TL_9_0" index="0" disallow="pedestrian rail_fast" speed="11.60" length="2.51" shape="67.60,-1.60 65.11,-1.24"/>
    </edge>
    <edge id=":TL_22" function="internal">
        <lane id=":TL_22_0" index="0" disallow="pedestrian rail_fast" speed="8.33" length="4.04" shape="58.57,-13.60 58.00,-17.60"/>
    </edge>
    <edge id=":TL_23" function="internal">
        <lane id=":TL_23_0" index="0" disallow="pedestrian rail_fast" speed="11.60" length="28.45" shape="65.11,-1.24 59.20,-0.40 53.20,3.20 49.60,9.20 48.40,17.60"/>
    </edge>
    <edge id=":TL_10" function="internal">
        <lane id=":TL_10_0" index="0" disallow="pedestrian rail_fast" speed="8.33" length="5.68" shape="58.00,17.60 58.60,13.40 59.34,12.17"/>
    </edge>
    <edge id=":TL_11" function="internal">
        <lane id=":TL_11_0" index="0" disallow="pedestrian rail_fast" speed="13.89" length="35.20" shape="58.00,17.60 58.00,-17.60"/>
        <lane id=":TL_11_1" index="1" disallow="pedestrian rail_fast" speed="13.89" length="35.20" shape="54.80,17.60 54.80,-17.60"/>
        <lane id=":TL_11_2" index="2" disallow="pedestrian rail_fast" speed="13.89" length="35.20" shape="51.60,17.60 51.60,-17.60"/>
    </edge>
    <edge id=":TL_14" function="internal">
        <lane id=":TL_14_0" index="0" disallow="pedestrian rail_fast" speed="11.60" length="2.51" shape="51.60,17.60 51.24,15.11"/>
    </edge>
    <edge id=":TL_24" function="internal">
        <lane id=":TL_24_0" index="0" disallow="pedestrian rail_fast" speed="8.33" length="9.80" shape="59.34,12.17 60.40,10.40 63.40,8.60 67.60,8.00"/>
    </edge>
    <edge id=":TL_25" function="internal">
        <lane id=":TL_25_0" index="0" disallow="pedestrian rail_fast" speed="11.60" length="28.45" shape="51.24,15.11 50.40,9.20 46.80,3.20 40.80,-0.40 32.40,-1.60"/>
    </edge>
    <edge id=":TL_15" function="internal">
        <lane id=":TL_15_0" index="0" disallow="pedestrian rail_fast" speed="8.33" length="5.75" shape="32.40,8.00 36.60,8.60 37.89,9.38"/>
    </edge>
    <edge id=":TL_16" function="internal">
        <lane id=":TL_16_0" index="0" disallow="pedestrian rail_fast" speed="13.89" length="35.20" shape="32.40,8.00 67.60,8.00"/>
        <lane id=":TL_16_1" index="1" disallow="pedestrian rail_fast" speed="13.89" length="35.20" shape="32.40,4.80 67.60,4.80"/>
        <lane id=":TL_16_2" index="2" disallow="pedestrian rail_fast" speed="13.89" length="35.20" shape="32.40,1.60 67.60,1.60"/>
    </edge>
    <edge id=":TL_19" function="internal">
        <lane id=":TL_19_0" index="0" disallow="pedestrian rail_fast" speed="11.60" length="2.51" shape="32.40,1.60 34.89,1.24"/>
    </edge>
    <edge id=":TL_26" function="internal">
        <lane id=":TL_26_0" index="0" disallow="pedestrian rail_fast" speed="8.33" length="9.73" shape="37.89,9.38 39.60,10.40 41.40,13.40 42.00,17.60"/>
    </edge>
    <edge id=":TL_27" function="internal">
        <lane id=":TL_27_0" index="0" disallow="pedestrian rail_fast" speed="11.60" length="28.45" shape="34.89,1.24 40.80,0.40 46.80,-3.20 50.40,-9.20 51.60,-17.60"/>
    </edge>
    <edge id=":TL_c0" function="crossing" crossingEdges="TL2E E2TL TL2S S2TL">
        <lane id=":TL_c0_0" index="0" allow="pedestrian" speed="1.00" length="31.00" width="4.00" customShape="1" shape="61.64,11.65 38.71,-11.57"/>
    </edge>
    <edge id=":TL_c1" function="crossing" crossingEdges="TL2S S2TL">
        <lane id=":TL_c1_0" index="0" allow="pedestrian" speed="1.00" length="19.00" width="4.00" shape="59.60,-15.60 40.40,-15.60"/>
    </edge>
    <edge id=":TL_c2" function="crossing" crossingEdges="TL2N N2TL TL2E E2TL">
        <lane id=":TL_c2_0" index="0" allow="pedestrian" speed="1.00" length="31.00" width="4.00" customShape="1" shape="38.63,11.48 61.49,-11.71"/>
    </edge>
    <edge id=":TL_c3" function="crossing" crossingEdges="TL2E E2TL">
        <lane id=":TL_c3_0" index="0" allow="pedestrian" speed="1.00" length="19.00" width="4.00" shape="65.60,9.60 65.60,-9.60"/>
    </edge>
    <edge id=":TL_c4" function="crossing" crossingEdges="TL2N N2TL">
        <lane id=":TL_c4_0" index="0" allow="pedestrian" speed="1.00" length="19.00" width="4.00" shape="40.40,15.60 59.60,15.60"/>
    </edge>
    <edge id=":TL_c5" function="crossing" crossingEdges="TL2W W2TL">
        <lane id=":TL_c5_0" index="0" allow="pedestrian" speed="1.00" length="19.00" width="4.00" shape="34.40,-9.60 34.40,9.60"/>
    </edge>
    <edge id=":TL_w0" function="walkingarea">
        <lane id=":TL_w0_0" index="0" allow="pedestrian" speed="1.00" length="7.00" width="4.00" shape="32.40,-9.60 32.40,-11.60 38.40,-17.60 40.40,-17.60 40.18,-15.16 39.51,-13.16 38.40,-11.60 36.84,-10.49 34.84,-9.82"/>
    </edge>
    <edge id=":TL_w1" function="walkingarea">
        <lane id=":TL_w1_0" index="0" allow="pedestrian" speed="1.00" length="7.00" width="4.00" shape="59.60,-17.60 61.60,-17.60 67.60,-11.60 67.60,-9.60 65.16,-9.82 63.16,-10.49 61.60,-11.60 60.49,-13.16 59.82,-15.16"/>
    </edge>
    <edge id=":TL_w2" function="walkingarea">
        <lane id=":TL_w2_0" index="0" allow="pedestrian" speed="1.00" length="7.00" width="4.00" shape="67.60,9.60 67.60,11.60 61.60,17.60 59.60,17.60 59.82,15.16 60.49,13.16 61.60,11.60 63.16,10.49 65.16,9.82"/>
    </edge>
    <edge id=":TL_w3" function="walkingarea">
        <lane id=":TL_w3_0" index="0" allow="pedestrian" speed="1.00" length="7.00" width="4.00" shape="40.40,17.60 38.40,17.60 32.40,11.60 32.40,9.60 34.84,9.82 36.84,10.49 38.40,11.60 39.51,13.16 40.18,15.16"/>
    </edge>
    <edge id=":W_0" function="internal">
        <lane id=":W_0_0" index="0" disallow="pedestrian rail_fast" speed="13.89" length="0.10" shape="0.00,-8.00 0.00,-8.00"/>
        <lane id=":W_0_1" index="1" disallow="pedestrian rail_fast" speed="13.89" length="0.10" shape="0.00,-4.80 0.00,-4.80"/>
        <lane id=":W_0_2" index="2" disallow="pedestrian rail_fast" speed="13.89" length="0.10" shape="0.00,-1.60 0.00,-1.60"/>
    </edge>
    <edge id=":W_3" function="internal">
        <lane id=":W_3_0" index="0" disallow="pedestrian rail_fast" speed="13.89" length="0.10" shape="0.00,8.00 0.00,8.00"/>
        <lane id=":W_3_1" index="1" disallow="pedestrian rail_fast" speed="13.89" length="0.10" shape="0.00,4.80 0.00,4.80"/>
        <lane id=":W_3_2" index="2" disallow="pedestrian rail_fast" speed="13.89" length="0.10" shape="0.00,1.60 0.00,1.60"/>
    </edge>

    <edge id="E2TL" from="E" to="TL" priority="2">
        <lane id="E2TL_0" index="0" allow="pedestrian" speed="13.89" length="30.90" width="2.00" shape="98.50,-10.60 67.60,-10.60"/>
        <lane id="E2TL_1" index="1" disallow="pedestrian rail_fast" speed="13.89" length="30.90" shape="98.50,-8.00 67.60,-8.00"/>
        <lane id="E2TL_2" index="2" disallow="pedestrian rail_fast" speed="13.89" length="30.90" shape="98.50,-4.80 67.60,-4.80"/>
        <lane id="E2TL_3" index="3" disallow="pedestrian rail_fast" speed="13.89" length="30.90" shape="98.50,-1.60 67.60,-1.60"/>
    </edge>
    <edge id="EE2TL" from="EED" to="E" priority="-1">
        <lane id="EE2TL_0" index="0" speed="13.89" length="98.50" shape="200.00,-8.00 101.50,-8.00"/>
        <lane id="EE2TL_1" index="1" speed="13.89" length="98.50" shape="200.00,-4.80 101.50,-4.80"/>
        <lane id="EE2TL_2" index="2" speed="13.89" length="98.50" shape="200.00,-1.60 101.50,-1.60"/>
    </edge>
    <edge id="N2TL" from="N" to="TL" priority="2">
        <lane id="N2TL_0" index="0" allow="pedestrian" speed="13.89" length="30.90" width="2.00" shape="60.60,48.50 60.60,17.60"/>
        <lane id="N2TL_1" index="1" disallow="pedestrian rail_fast" speed="13.89" length="30.90" shape="58.00,48.50 58.00,17.60"/>
        <lane id="N2TL_2" index="2" disallow="pedestrian rail_fast" speed="13.89" length="30.90" shape="54.80,48.50 54.80,17.60"/>
        <lane id="N2TL_3" index="3" disallow="pedestrian rail_fast" speed="13.89" length="30.90" shape="51.60,48.50 51.60,17.60"/>
    </edge>
    <edge id="NN2TL" from="NED" to="N" priority="-1">
        <lane id="NN2TL_0" index="0" speed="13.89" length="98.50" shape="58.00,150.00 58.00,51.50"/>
        <lane id="NN2TL_1" index="1" speed="13.89" length="98.50" shape="54.80,150.00 54.80,51.50"/>
        <lane id="NN2TL_2" index="2" speed="13.89" length="98.50" shape="51.60,150.00 51.60,51.50"/>
    </edge>
    <edge id="S2TL" from="S" to="TL" priority="2">
        <lane id="S2TL_0" index="0" allow="pedestrian" speed="13.89" length="30.90" width="2.00" shape="39.40,-48.50 39.40,-17.60"/>
        <lane id="S2TL_1" index="1" disallow="pedestrian rail_fast" speed="13.89" length="30.90" shape="42.00,-48.50 42.00,-17.60"/>
        <lane id="S2TL_2" index="2" disallow="pedestrian rail_fast" speed="13.89" length="30.90" shape="45.20,-48.50 45.20,-17.60"/>
        <lane id="S2TL_3" index="3" disallow="pedestrian rail_fast" speed="13.89" length="30.90" shape="48.40,-48.50 48.40,-17.60"/>
    </edge>
    <edge id="SS2TL" from="SED" to="S" priority="-1">
        <lane id="SS2TL_0" index="0" speed="13.89" length="98.50" shape="42.00,-150.00 42.00,-51.50"/>
        <lane id="SS2TL_1" index="1" speed="13.89" length="98.50" shape="45.20,-150.00 45.20,-51.50"/>
        <lane id="SS2TL_2" index="2" speed="13.89" length="98.50" shape="48.40,-150.00 48.40,-51.50"/>
    </edge>
    <edge id="TL2E" from="TL" to="E" priority="2">
        <lane id="TL2E_0" index="0" allow="pedestrian" speed="13.89" length="30.90" width="2.00" shape="67.60,10.60 98.50,10.60"/>
        <lane id="TL2E_1" index="1" disallow="pedestrian rail_fast" speed="13.89" length="30.90" shape="67.60,8.00 98.50,8.00"/>
        <lane id="TL2E_2" index="2" disallow="pedestrian rail_fast" speed="13.89" length="30.90" shape="67.60,4.80 98.50,4.80"/>
        <lane id="TL2E_3" index="3" disallow="pedestrian rail_fast" speed="13.89" length="30.90" shape="67.60,1.60 98.50,1.60"/>
    </edge>
    <edge id="TL2EE" from="E" to="EED" priority="-1">
        <lane id="TL2EE_0" index="0" speed="13.89" length="98.50" shape="101.50,8.00 200.00,8.00"/>
        <lane id="TL2EE_1" index="1" speed="13.89" length="98.50" shape="101.50,4.80 200.00,4.80"/>
        <lane id="TL2EE_2" index="2" speed="13.89" length="98.50" shape="101.50,1.60 200.00,1.60"/>
    </edge>
    <edge id="TL2N" from="TL" to="N" priority="2">
        <lane id="TL2N_0" index="0" allow="pedestrian" speed="13.89" length="30.90" width="2.00" shape="39.40,17.60 39.40,48.50"/>
        <lane id="TL2N_1" index="1" disallow="pedestrian rail_fast" speed="13.89" length="30.90" shape="42.00,17.60 42.00,48.50"/>
        <lane id="TL2N_2" index="2" disallow="pedestrian rail_fast" speed="13.89" length="30.90" shape="45.20,17.60 45.20,48.50"/>
        <lane id="TL2N_3" index="3" disallow="pedestrian rail_fast" speed="13.89" length="30.90" shape="48.40,17.60 48.40,48.50"/>
    </edge>
    <edge id="TL2NN" from="N" to="NED" priority="-1">
        <lane id="TL2NN_0" index="0" speed="13.89" length="98.50" shape="42.00,51.50 42.00,150.00"/>
        <lane id="TL2NN_1" index="1" speed="13.89" length="98.50" shape="45.20,51.50 45.20,150.00"/>
        <lane id="TL2NN_2" index="2" speed="13.89" length="98.50" shape="48.40,51.50 48.40,150.00"/>
    </edge>
    <edge id="TL2S" from="TL" to="S" priority="2">
        <lane id="TL2S_0" index="0" allow="pedestrian" speed="13.89" length="30.90" width="2.00" shape="60.60,-17.60 60.60,-48.50"/>
        <lane id="TL2S_1" index="1" disallow="pedestrian rail_fast" speed="13.89" length="30.90" shape="58.00,-17.60 58.00,-48.50"/>
        <lane id="TL2S_2" index="2" disallow="pedestrian rail_fast" speed="13.89" length="30.90" shape="54.80,-17.60 54.80,-48.50"/>
        <lane id="TL2S_3" index="3" disallow="pedestrian rail_fast" speed="13.89" length="30.90" shape="51.60,-17.60 51.60,-48.50"/>
    </edge>
    <edge id="TL2SS" from="S" to="SED" priority="-1">
        <lane id="TL2SS_0" index="0" speed="13.89" length="98.50" shape="58.00,-51.50 58.00,-150.00"/>
        <lane id="TL2SS_1" index="1" speed="13.89" length="98.50" shape="54.80,-51.50 54.80,-150.00"/>
        <lane id="TL2SS_2" index="2" speed="13.89" length="98.50" shape="51.60,-51.50 51.60,-150.00"/>
    </edge>
    <edge id="TL2W" from="TL" to="W" priority="2">
        <lane id="TL2W_0" index="0" allow="pedestrian" speed="13.89" length="32.40" width="2.00" shape="32.40,-10.60 0.00,-10.60"/>
        <lane id="TL2W_1" index="1" disallow="pedestrian rail_fast" speed="13.89" length="32.40" shape="32.40,-8.00 0.00,-8.00"/>
        <lane id="TL2W_2" index="2" disallow="pedestrian rail_fast" speed="13.89" length="32.40" shape="32.40,-4.80 0.00,-4.80"/>
        <lane id="TL2W_3" index="3" disallow="pedestrian rail_fast" speed="13.89" length="32.40" shape="32.40,-1.60 0.00,-1.60"/>
    </edge>
    <edge id="TL2WW" from="W" to="WED" priority="-1">
        <lane id="TL2WW_0" index="0" disallow="pedestrian" speed="13.89" length="100.00" shape="0.00,-8.00 -100.00,-8.00"/>
        <lane id="TL2WW_1" index="1" disallow="pedestrian" speed="13.89" length="100.00" shape="0.00,-4.80 -100.00,-4.80"/>
        <lane id="TL2WW_2" index="2" disallow="pedestrian" speed="13.89" length="100.00" shape="0.00,-1.60 -100.00,-1.60"/>
    </edge>
    <edge id="W2TL" from="W" to="TL" priority="2" length="35.40">
        <lane id="W2TL_0" index="0" allow="pedestrian" speed="13.89" length="35.40" width="2.00" shape="0.00,10.60 32.40,10.60"/>
        <lane id="W2TL_1" index="1" disallow="pedestrian rail_fast" speed="13.89" length="35.40" shape="0.00,8.00 32.40,8.00"/>
        <lane id="W2TL_2" index="2" disallow="pedestrian rail_fast" speed="13.89" length="35.40" shape="0.00,4.80 32.40,4.80"/>
        <lane id="W2TL_3" index="3" disallow="pedestrian rail_fast" speed="13.89" length="35.40" shape="0.00,1.60 32.40,1.60"/>
    </edge>
    <edge id="WW2TL" from="WED" to="W" priority="-1">
        <lane id="WW2TL_0" index="0" disallow="pedestrian" speed="13.89" length="100.00" shape="-100.00,8.00 0.00,8.00"/>
        <lane id="WW2TL_1" index="1" disallow="pedestrian" speed="13.89" length="100.00" shape="-100.00,4.80 0.00,4.80"/>
        <lane id="WW2TL_2" index="2" disallow="pedestrian" speed="13.89" length="100.00" shape="-100.00,1.60 0.00,1.60"/>
    </edge>
    <!-- THIS LOGIC WORKS WELL *DO NOT DELETE OR CHANGE*  -->
<!--    <tlLogic id="C" type="static" programID="0" offset="2">-->
<!--        <phase duration="10" state="rrrrrgGGGgrrrrrgGGGgGrrrrr"/>-->
<!--        <phase duration="10" state="rrrrrgGGGgrrrrrgGGGgrGrrrr"/>-->
<!--        <phase duration="10" state="rrrrrgGGGgrrrrrgGGGgrrGrrr"/>-->
<!--        <phase duration="10" state="rrrrrgGGGgrrrrrgGGGgrrrGrr"/>-->
<!--        <phase duration="10" state="rrrrrgGGGgrrrrrgGGGgrrrrGr"/>-->
<!--        <phase duration="10" state="rrrrrgGGGgrrrrrgGGGgrrrrrG"/>-->
<!--    </tlLogic>-->

    <tlLogic id="C" type="static" programID="0" offset="2">
        <!--1:EW veh green, EW ped green id=0 act=0-->
        <phase duration="10" state="rrrrrgGGGgrrrrrgGGGgrGrrGr"/>
        <!--1:EW veh green, EW ped yellow id=1-->
        <phase duration="10" state="rrrrrgGGGgrrrrrgGGGgryrryr"/>
        <!--1:EW veh yellow, EW ped yellow id=2-->
        <phase duration="10"  state="rrrrryyyyyrrrrryyyyyryrryr"/>

        <!--2:NS veh　green, NS ped green id=3 act=1-->
        <phase duration="10" state="gGGGgrrrrrgGGGgrrrrrrrrGrG"/>
        <!--2:NS veh　green, NS ped yellow id=4-->
        <phase duration="10" state="gGGGgrrrrrgGGGgrrrrrrrryry"/>
        <!--2:NS veh　yellow, NS ped yellow id=5-->
        <phase duration="10" state="yyyyyrrrrryyyyyrrrrrrrryry"/>

        <!--3:EW veh green id=6 act=2-->
        <phase duration="10"  state="rrrrrgGGGgrrrrrgGGGgrrrrrr"/>
        <!--3:EW veh yellow id=7-->
        <phase duration="10"  state="rrrrryyyyyrrrrryyyyyrrrrrr"/>

        <!--4:NS veh green id=8 act=3-->
        <phase duration="10"  state="gGGGgrrrrrgGGGgrrrrrrrrrrr"/>
        <!--4:NS veh yellow id=9-->
        <phase duration="10"  state="yyyyyrrrrryyyyyrrrrrrrrrrr"/>

        <!--5:turn veh green id=10 act=4-->
        <phase duration="10"  state="rrrrGGrrrGrrrrGGrrrGrrrrrr"/>
        <!--5:turn veh yellow id=10-->
        <phase duration="10"  state="rrrryyrrryrrrryyrrryrrrrrr"/>

        <!--6:all ped green id=11 act=5-->
        <phase duration="10"  state="rrrrrrrrrrrrrrrrrrrrGGGGGG"/>
        <!--6:all ped yellow id=12-->
        <phase duration="10"  state="rrrrrrrrrrrrrrrrrrrryyyyyy"/>

    </tlLogic>

    <junction id="E" type="priority" x="100.00" y="0.00" incLanes="EE2TL_0 EE2TL_1 EE2TL_2 TL2E_0 TL2E_1 TL2E_2 TL2E_3" intLanes=":E_0_0 :E_0_1 :E_0_2 :E_3_0 :E_3_1 :E_3_2" shape="101.50,-9.60 101.50,9.60 98.50,11.60 98.50,-11.60">
        <request index="0" response="000000" foes="000000" cont="0"/>
        <request index="1" response="000000" foes="000000" cont="0"/>
        <request index="2" response="000000" foes="000000" cont="0"/>
        <request index="3" response="000000" foes="000000" cont="0"/>
        <request index="4" response="000000" foes="000000" cont="0"/>
        <request index="5" response="000000" foes="000000" cont="0"/>
    </junction>
    <junction id="EED" type="dead_end" x="200.00" y="0.00" incLanes="TL2EE_0 TL2EE_1 TL2EE_2" intLanes="" shape="200.00,-0.00 200.00,9.60 200.00,-0.00"/>
    <junction id="N" type="priority" x="50.00" y="50.00" incLanes="TL2N_0 TL2N_1 TL2N_2 TL2N_3 NN2TL_0 NN2TL_1 NN2TL_2" intLanes=":N_0_0 :N_0_1 :N_0_2 :N_3_0 :N_3_1 :N_3_2" shape="38.40,48.50 61.60,48.50 59.60,51.50 40.40,51.50">
        <request index="0" response="000000" foes="000000" cont="0"/>
        <request index="1" response="000000" foes="000000" cont="0"/>
        <request index="2" response="000000" foes="000000" cont="0"/>
        <request index="3" response="000000" foes="000000" cont="0"/>
        <request index="4" response="000000" foes="000000" cont="0"/>
        <request index="5" response="000000" foes="000000" cont="0"/>
    </junction>
    <junction id="NED" type="dead_end" x="50.00" y="150.00" incLanes="TL2NN_0 TL2NN_1 TL2NN_2" intLanes="" shape="50.00,150.00 40.40,150.00 50.00,150.00"/>
    <junction id="S" type="priority" x="50.00" y="-50.00" incLanes="SS2TL_0 SS2TL_1 SS2TL_2 TL2S_0 TL2S_1 TL2S_2 TL2S_3" intLanes=":S_0_0 :S_0_1 :S_0_2 :S_3_0 :S_3_1 :S_3_2" shape="40.40,-51.50 59.60,-51.50 61.60,-48.50 38.40,-48.50">
        <request index="0" response="000000" foes="000000" cont="0"/>
        <request index="1" response="000000" foes="000000" cont="0"/>
        <request index="2" response="000000" foes="000000" cont="0"/>
        <request index="3" response="000000" foes="000000" cont="0"/>
        <request index="4" response="000000" foes="000000" cont="0"/>
        <request index="5" response="000000" foes="000000" cont="0"/>
    </junction>
    <junction id="SED" type="dead_end" x="50.00" y="-150.00" incLanes="TL2SS_0 TL2SS_1 TL2SS_2" intLanes="" shape="50.00,-150.00 59.60,-150.00 50.00,-150.00"/>
    <junction id="TL" type="traffic_light" x="50.00" y="0.00" incLanes="S2TL_0 S2TL_1 S2TL_2 S2TL_3 E2TL_0 E2TL_1 E2TL_2 E2TL_3 N2TL_0 N2TL_1 N2TL_2 N2TL_3 W2TL_0 W2TL_1 W2TL_2 W2TL_3 :TL_w2_0 :TL_w1_0 :TL_w3_0 :TL_w0_0" intLanes=":TL_20_0 :TL_1_0 :TL_1_1 :TL_1_2 :TL_21_0 :TL_22_0 :TL_6_0 :TL_6_1 :TL_6_2 :TL_23_0 :TL_24_0 :TL_11_0 :TL_11_1 :TL_11_2 :TL_25_0 :TL_26_0 :TL_16_0 :TL_16_1 :TL_16_2 :TL_27_0 :TL_c0_0 :TL_c1_0 :TL_c2_0 :TL_c3_0 :TL_c4_0 :TL_c5_0" shape="38.40,-17.60 61.60,-17.60 62.27,-14.27 63.10,-13.10 64.27,-12.27 65.77,-11.77 67.60,-11.60 67.60,11.60 64.27,12.27 63.10,13.10 62.27,14.27 61.77,15.77 61.60,17.60 38.40,17.60 37.73,14.27 36.90,13.10 35.73,12.27 34.23,11.77 32.40,11.60 32.40,-11.60 35.73,-12.27 36.90,-13.10 37.73,-14.27 38.23,-15.77" radius="6.00" rightOfWay="edgePriority">
        <request index="0"  response="10001100000000000111000000" foes="10001100000000000111000000" cont="1"/>
        <request index="1"  response="01011111111100001000000000" foes="01011111111100001111000000" cont="0"/>
        <request index="2"  response="01011111111100001000000000" foes="01011111111100001111000000" cont="0"/>
        <request index="3"  response="01011111111100001000000000" foes="01011111111100001111000000" cont="0"/>
        <request index="4"  response="00111111110011100111000000" foes="00111111110011101111000000" cont="1"/>
        <request index="5"  response="00111100000011100000000000" foes="00111100000011100000000000" cont="1"/>
        <request index="6"  response="10110100000100000000011111" foes="10110110000111100000011111" cont="0"/>
        <request index="7"  response="10110100000100000000011111" foes="10110110000111100000011111" cont="0"/>
        <request index="8"  response="10110100000100000000011111" foes="10110110000111100000011111" cont="0"/>
        <request index="9"  response="01110101110011100000011110" foes="01110101110111100000011110" cont="1"/>
        <request index="10" response="01110101110000000000000000" foes="01110101110000000000000000" cont="1"/>
        <request index="11" response="01011110000000001111110000" foes="01011111110000001111110000" cont="0"/>
        <request index="12" response="01011110000000001111110000" foes="01011111110000001111110000" cont="0"/>
        <request index="13" response="01011110000000001111110000" foes="01011111110000001111110000" cont="0"/>
        <request index="14" response="11010001110000001111001110" foes="11010011110000001111001110" cont="1"/>
        <request index="15" response="11010000000000000000001110" foes="11010000000000000000001110" cont="1"/>
        <request index="16" response="10110100000111110000010000" foes="10110100000111111000011110" cont="0"/>